32

Ni         3.90058        7.40083        6.16368
Ni         7.52117        7.50039       10.79481
Ni         8.98438       10.82081        6.13547
Ni         9.14878        4.23834        6.15560
Ni         5.31861        7.44591        9.90116
Ni        10.47482        9.92870        7.86330
Ni        10.59109        5.21717        7.87577
Ni         5.22431        9.16361        5.44624
Ni         5.31574        5.70648        5.45414
Ni         6.42010        7.45978        3.98342
Ni         8.56737        4.21586        8.49480
Ni         8.40006       10.82693        8.47341
Ni        10.47033        8.78922        5.73298
Ni        10.52928        6.34480        5.73855
Ni         6.66665        9.49607        9.46441
Ni         6.76915        5.46539        9.47364
Ni         7.48025        9.48920        4.88513
Ni         7.58530        5.49297        4.89588
Ni         6.83042        4.79909        7.06887
Ni         6.69414       10.14901        7.05497
Ni         5.06544        8.64200        7.82540
Ni         5.12903        6.22902        7.82955
Ni         8.68495        7.52193        4.87020
Ni         9.06116        8.74402        9.42551
Ni         9.12064        6.33884        9.42629
Ni        10.50207        7.57208        7.83736
Ni         7.16924        7.49045        8.51041
Ni         8.53363        8.74466        7.02038
Ni         8.59319        6.29676        7.02541
Ni         6.57370        7.47125        6.24349
H          9.16277        8.76458       11.38611
H          8.79485        8.41482       10.82481
