32

Ni         3.87277        7.45190        6.29729
Ni         7.62636        7.51937       10.83592
Ni         9.04788       10.82376        6.13799
Ni         9.16981        4.24872        6.15990
Ni         5.40297        7.48269        9.97704
Ni        10.55662        9.92982        7.86465
Ni        10.64399        5.20438        7.88127
Ni         5.22800        9.17905        5.51706
Ni         5.29830        5.77965        5.52115
Ni         6.44117        7.48945        4.03050
Ni         8.60010        4.22624        8.50253
Ni         8.48503       10.83383        8.48762
Ni        10.52978        8.78321        5.73869
Ni        10.55477        6.32966        5.74092
Ni         6.76303        9.52411        9.51616
Ni         6.82933        5.48794        9.51549
Ni         7.48956        9.51280        4.92238
Ni         7.57636        5.52258        4.94061
Ni         6.83390        4.81403        7.10181
Ni         6.74078       10.18063        7.09349
Ni         5.11874        8.68818        7.90793
Ni         5.17261        6.27154        7.90816
Ni         8.70970        7.54332        4.90882
Ni         9.16275        8.74624        9.44180
Ni         9.19726        6.33514        9.44716
Ni        10.56133        7.56344        7.83159
Ni         7.23616        7.51687        8.55578
Ni         8.58572        8.76421        7.04088
Ni         8.62106        6.29910        7.05261
Ni         6.59694        7.50633        6.30085
H          8.03122        9.99491        9.80630
H          7.76441        9.42935       10.20320
